Version 4.1
SHEET 1 880 680
WIRE 240 48 160 48
WIRE 528 48 464 48
WIRE 240 112 176 112
WIRE 528 112 464 112
WIRE 608 112 528 112
WIRE -128 128 -144 128
WIRE -128 144 -128 128
WIRE 240 176 128 176
WIRE 528 176 464 176
WIRE 624 176 528 176
WIRE -128 240 -128 224
WIRE 240 240 176 240
WIRE 496 240 464 240
WIRE 496 320 496 304
FLAG -128 240 0
FLAG -144 128 Vcc
FLAG 528 48 Vcc
FLAG 496 320 0
FLAG 176 240 Vcc
FLAG 528 176 TRIG
FLAG 624 240 0
FLAG 160 48 0
FLAG 688 112 Vcc
FLAG 176 112 TRIG
FLAG 528 112 TRIG
FLAG 128 176 out
SYMBOL voltage -128 128 R0
WINDOW 123 0 0 Left 0
WINDOW 39 0 0 Left 0
SYMATTR InstName V1
SYMATTR Value 3.3
SYMBOL Misc\\NE555 352 144 R0
SYMATTR InstName U1
SYMBOL cap 480 240 R0
SYMATTR InstName C1
SYMATTR Value 1µ
SYMBOL cap 608 176 R0
SYMATTR InstName C2
SYMATTR Value 1µ
SYMBOL res 704 96 R90
WINDOW 0 0 56 VBottom 2
WINDOW 3 32 56 VTop 2
SYMATTR InstName R1
SYMATTR Value 500
TEXT -192 344 Left 2 !.tran 0 100m 0 0.0001
