Version 4.1
SHEET 1 880 680
WIRE 384 -16 208 -16
WIRE 384 48 384 -16
WIRE 208 96 208 64
WIRE 320 96 208 96
WIRE 208 192 208 160
WIRE 384 192 384 144
WIRE 208 288 208 256
WIRE 384 288 384 272
WIRE 384 288 208 288
FLAG -128 160 0
SYMBOL voltage -128 48 R0
WINDOW 123 0 0 Left 0
WINDOW 39 0 0 Left 0
SYMATTR InstName V1
SYMATTR Value 3.3
SYMBOL voltage -32 48 R0
WINDOW 123 0 0 Left 0
WINDOW 39 0 0 Left 0
SYMATTR InstName V2
SYMATTR Value 3
SYMBOL diode 192 96 R0
SYMATTR InstName D1
SYMBOL diode 192 192 R0
SYMATTR InstName D2
SYMBOL res 368 176 R0
SYMATTR InstName R1
SYMBOL res 192 -32 R0
SYMATTR InstName R2
SYMBOL npn 320 48 R0
SYMATTR InstName Q1
