Version 4.1
SHEET 1 2620 680
WIRE 1344 -448 1344 -480
WIRE -432 -336 -448 -336
WIRE 1088 -336 1088 -416
WIRE -832 -320 -832 -336
WIRE -432 -320 -432 -336
WIRE 1344 -304 1344 -368
WIRE 1344 -304 1328 -304
WIRE 1408 -304 1344 -304
WIRE 1040 -256 992 -256
WIRE 224 -240 160 -240
WIRE 368 -240 288 -240
WIRE 464 -240 368 -240
WIRE 592 -240 592 -304
WIRE 592 -240 528 -240
WIRE -832 -224 -832 -240
WIRE -432 -224 -432 -240
WIRE 1408 -224 1408 -240
WIRE 1408 -224 1328 -224
WIRE 1328 -208 1328 -224
WIRE 368 -192 368 -240
WIRE 1088 -176 1088 -240
WIRE 592 -160 592 -176
WIRE -480 -112 -592 -112
WIRE 368 -80 368 -128
WIRE 752 -16 752 -64
WIRE 368 32 368 0
WIRE 848 32 816 32
WIRE 1024 32 848 32
WIRE 1024 48 1024 32
WIRE 752 96 752 80
WIRE 752 192 752 176
FLAG -432 -224 0
FLAG -448 -336 PWM
FLAG 368 32 PWM
FLAG -832 -224 0
FLAG -832 -336 EN
FLAG 160 -240 EN
FLAG 592 -160 0
FLAG 592 -304 GATE
FLAG 992 -256 GATE
FLAG 1088 -176 LOAD
FLAG -480 -112 Vcc
FLAG -592 -32 0
FLAG 1088 -416 Vcc
FLAG 1344 -480 LOAD
FLAG 1328 -208 0
FLAG 752 -64 GATE
FLAG 752 192 0
FLAG -736 -112 3v3
FLAG 848 -48 3v3
FLAG -736 -32 0
FLAG 976 128 LOAD
FLAG 1024 144 0
SYMBOL voltage -432 -336 R0
WINDOW 123 0 0 Left 0
WINDOW 39 0 0 Left 0
SYMATTR InstName V1
SYMATTR Value PULSE(0 3.3 0 0.00001 .00001 1u 2u)
SYMBOL diode 224 -224 R270
WINDOW 0 32 32 VTop 2
WINDOW 3 0 32 VBottom 2
SYMATTR InstName D1
SYMATTR Value 1N5817
SYMATTR Description Diode
SYMATTR Type diode
SYMBOL diode 464 -224 R270
WINDOW 0 32 32 VTop 2
WINDOW 3 0 32 VBottom 2
SYMATTR InstName D2
SYMATTR Value 1N5817
SYMATTR Description Diode
SYMATTR Type diode
SYMBOL cap 352 -192 R0
SYMATTR InstName C1
SYMATTR Value 2.2µ
SYMBOL res 352 -96 R0
SYMATTR InstName R1
SYMATTR Value 500
SYMBOL voltage -832 -336 R0
WINDOW 123 0 0 Left 0
WINDOW 39 0 0 Left 0
SYMATTR InstName V2
SYMATTR Value PULSE(0 3.3 0 .001 .001 1 2)
SYMBOL cap 576 -240 R0
SYMATTR InstName C2
SYMATTR Value 4.7µ
SYMBOL nmos 1040 -336 R0
SYMATTR InstName M1
SYMATTR Value IPB016N06L3
SYMBOL voltage -592 -128 R0
WINDOW 123 0 0 Left 0
WINDOW 39 0 0 Left 0
SYMATTR InstName V3
SYMATTR Value 3.3
SYMBOL ind 1328 -464 R0
SYMATTR InstName L1
SYMATTR Value .1µ
SYMBOL res 1312 -320 R0
SYMATTR InstName R2
SYMATTR Value 10
SYMBOL cap 1392 -304 R0
SYMATTR InstName C3
SYMATTR Value 10µ
SYMBOL pnp 816 80 R180
SYMATTR InstName Q1
SYMBOL res 736 80 R0
SYMATTR InstName R3
SYMATTR Value 1k
SYMBOL nmos 976 48 R0
SYMATTR InstName M2
SYMATTR Value Si7336ADP
SYMBOL res 832 -64 R0
SYMATTR InstName R4
SYMATTR Value 1k
SYMBOL voltage -736 -128 R0
WINDOW 123 0 0 Left 0
WINDOW 39 0 0 Left 0
SYMATTR InstName V4
SYMATTR Value 3.3
TEXT -680 -176 Left 2 !.tran 0 100 0 0.00001
TEXT -856 -176 Left 2 !.ic V(out) = 0
TEXT -320 -472 Left 2 ;https://www.zero2orbit.com/blog/building-a-high-side-n-mos-driver-for-space-applications
